Geom Title=Itajai
Program Version=5.07
Viewing Rectangle= 563533.692557346 , 737977.837934093 , 7084274.1093611 , 6920492.7093608 

River Reach=Itajai          ,Trecho 1        
Reach XY= 545 
688430.9281602737025352.97445046688639.4640356567025267.42127081
688839.9793004487025238.01236531688984.3502910977025288.80956573
689019.1062703287025497.34544111688992.3709016897025713.90192708
689088.6182287897025839.55815969689294.4805673087025909.07011815
 689481.628147787025868.96706519689628.6726752937025780.74034868
689773.0436659437025684.49302158689847.9026981327025529.42788348
689879.9851404987025355.64798732 689936.129414647025243.35943904
690008.3149099657025064.23246916690101.8887002017024877.08488869
690208.8301747567024689.93730822690267.6479857627024532.19863325
690337.159944223 7024387.8276426690433.4072713237024272.86555745
690529.6545984227024173.94469349690620.5548517957024067.00321893
690692.7403471197023960.06174438  690775.61998997023858.46734355
690866.5202432727023732.81111095690960.0940335087023620.52256266
691075.056118655 7023492.1927932691224.7741830327023371.88363432
691441.3306690077023337.12765509691665.9077655737023422.68083473
691791.5639981767023478.82510888691976.0380417847023567.05182538
692139.1237904817023644.58439444692328.9449078177023706.07574231
692510.7454145617023748.85233213692655.1164052117023740.83172154
692743.3431217197023663.29915248 692716.607753087023502.88694065
692655.1164052117023345.14826568692513.4189514257023248.90093858
692385.089181958 7023136.6123903692240.7181913097022997.58847338
692061.5912214287022794.39967172 691938.608525697022652.70221794
691834.3405879987022521.69891161691772.8492401297022406.73682646
691754.1344820827022289.10120445691764.8286295377022152.75082439
 691794.23753504 7022019.0739812691837.0141248627021799.84395836
691869.0965672297021660.82004143691922.5673045067021505.75490333
691978.7115786487021369.40452327692064.2647582927021219.68645889
692147.144401073 7021115.4185212692256.759412492 7021019.1711941
692371.7214976397020925.59740387692478.6629721947020869.45312972
692590.9515204787020840.04422422692665.8105526667020858.75898227
692711.2606793527020944.31216191692703.2400687617021064.62132079
692689.8723844417021235.72768008692684.5253107147021350.68976522
692721.9548268087021497.73429274692783.4461746777021607.34930416
692847.6110594117021682.20833635692951.878997102 7021789.1498109
693029.4115661557021834.59993759693157.7413356217021850.64115877
693344.8889160937021874.70299055693451.8303906487021909.45896978
693585.5072338437021936.19433841693737.8988350847021973.62385451
693826.125551592 7022011.0533706693959.8023947877022051.15642356
694064.0703324787022096.60655025694141.6029015317022136.70960321
694211.1148599927022190.18034048694267.2591341337022251.67168835
694296.6680396367022342.57194173694272.6062078617022449.51341628
694243.1973023587022543.08720652694197.7471756727022633.98745989
694173.6853438977022735.58186072694157.6441227147022839.84979841
694149.6235121227022954.81188355 694154.97058585 7023069.7739687
694157.6441227147023158.00068521694168.3382701697023286.33045468
694184.3794913537023401.29253982694243.1973023587023516.25462497
694342.1181663227023601.80780462694446.3861040137023628.54317325
694539.959894249 7023588.4401203694636.2072213497023532.29584615
694732.4545484497023452.08974024694820.6812649577023363.86302373
694892.8667602827023297.02460213695002.4817717017023182.06251699
695088.0349513467023048.38567379 695173.588130997022917.38236746
695277.8560686817022791.72613486695384.7975432377022644.68160734
695481.0448703377022505.65769042695587.9863448927022374.65438409
695684.2336719927022291.77474131695783.1545359567022232.95693031
695972.9756532917022195.52741421696165.4703074917022200.87448794
696296.4736138217022248.99815149696523.7242472527022329.20425741
696652.0540167187022382.67499468696767.0161018657022452.18695315
696836.528060326 7022529.7195222696892.6723344687022647.35514421
696938.1224611547022775.68491367696946.1430717457022920.05590432
696948.816608609 7023040.3650632696994.2667352957023227.51264367
 697031.696251397023331.78058136697133.2906522177023473.47803515
697232.2115161817023585.76658343697347.1736013287023671.31976308
697480.8504445227023735.48464781697686.7127830417023786.28184822
697839.1043842837023818.36429059698010.2107435727023853.12026982
698226.7672295467023887.87624905698462.0384735687023922.63222828
698675.9214226797023984.12357615698956.6427933877024040.26785029
699157.1580581787024026.90016597699376.3880810177023992.14418674
699560.8621246257023933.32637574699691.8654309557023834.40551177
699723.9478733227023695.38159485699699.8860415477023585.76658343
 699702.559578417023444.06912965699713.2537258667023267.61569663
699729.2949470497023056.40628438699774.7450737357022839.84979841
699828.2158110137022663.39636539699937.8308224327022473.57524806
700076.8547393547022315.83657309700245.2875617797022120.66838202
700357.576110062 7021981.6444651700488.5794163927021831.92640072
700627.6033333147021674.18772575700737.218344734 7021500.4078296
700868.2216510647021313.26024913700996.5514205317021163.54218475
  701154.29009557021016.49765724701349.4582865637020912.22971955
701485.8086666217020810.63531872701624.8325835437020682.30554925
701737.1211318277020572.69053783701806.6330902887020519.21980056
701910.9010279797020406.93125227702031.2101868547020299.98977772
702148.8458088657020195.72184003 702255.787283427020112.84219725
702365.4022948397020016.59487015 702483.037916857019917.67400618
702606.0206125897019874.89741636702777.1269718787019882.91802695
702913.4773519367019915.00046932703049.8277319947019981.83889091
703140.7279853667020075.41268115703186.1781120527020177.00708198
703247.6694599217020283.94855653703333.2226395667020444.36076837
 703405.408134897020567.34346411703490.961314535 7020701.0203073
 703563.146809867020824.00300304703619.2910840017020933.61801446
703726.2325585577021072.64193138 703825.153422527021190.27755339
703940.1155076677021299.89256481704047.0569822237021393.46635505
704186.0808991457021516.44905078704330.4518897947021631.41113593
704440.0669012147021727.65846303704571.0702075447021813.21164268
704710.0941244667021901.43835918 704843.770967667021976.29739137
 704940.018294767022024.42105492705049.6333061797022061.85057102
705159.2483175997022072.54471847705271.5368658827022056.50349729
705397.1930984847022032.44166551705514.828720495 7022011.0533706
705621.7701950517021986.99153883705747.4264276537021957.58263332
  705862.38851287021936.19433841705996.0653559957021909.45896977
706164.498178419  7021885.397138706359.6663694837021864.00884309
 706522.752118187021850.64115877706664.4495719667021831.92640072
706814.1676363437021826.57932699706961.2121638577021826.57932699
707118.9508388267021829.25286386707215.1981659267021829.25286386
707356.8956197127021799.84395836707485.225389178 7021759.7409054
707675.046506514 7021692.9024838 707803.376275987021615.36991475
707921.0118979917021511.10197706708089.4447204167021406.83403936
708273.918764024 7021307.9131754708412.9426809467021214.33938517
708509.1900080467021150.17450043708618.805019465 7021056.6007102
708723.072957157 7020960.3533831708808.6261368017020861.43251913
708902.1999270377020749.14397085709001.1207910017020628.83481198
709089.3475075097020497.83150564709142.8182447877020385.54295736
709231.0449612957020265.23379849709292.5363091647020158.29232393
709364.7218044897020067.39207056709428.8866892227020016.59487015
709559.8899955537019979.16535405709650.7902489257019976.49181719
709776.4464815277020067.39207056709856.652587444 7020152.9452502
709918.1439353137020251.86611417710009.0441886857020385.54295736
710099.9444420577020516.54626369710193.5182322937020628.83481198
710241.641895843 7020730.4292128710319.1744648967020837.37068736
710394.0334970857020906.88264582710506.3220453687020979.06814114
710650.6930360177021043.23302588710784.3698792127021107.39791061
710934.0879435897021150.17450043711075.7853973757021192.95109026
711217.4828511617021259.78951185711393.936284177  7021374.751597
711511.5719061887021457.63123978 711615.839843887021540.51088256
711738.8225396187021607.34930416711877.8464565417021698.24955753
 711974.093783647021762.41444226712115.7912374267021767.76151599
712244.1210068937021757.06736854712433.9421242287021767.76151599
712618.4161678377021783.80273717712786.8489902617021810.53810581
712939.2405915037021815.88517954713115.6940245197021850.64115877
713332.2505104947021917.47958037713570.1952913797021976.29739137
713722.5868926217022024.42105492713917.7550836847022085.91240279
714070.146684926 7022144.7302138714214.517675576 7022211.5686354
714345.5209819067022267.71290954714468.5036776457022315.83657309
714586.1392996557022363.96023664714741.2044377617022428.12512137
714877.5548178197022476.24878492715005.8845872857022513.67830101
715163.6232622557022540.41366965715259.8705893547022567.14903829
715374.8326745017022596.55794379715524.5507388797022671.41697598
715636.8392871627022789.05259799715735.760151126   7022906.68822
 715821.313330777023018.97676829715901.5194366877023120.57116912
715954.9901739647023240.88032799716003.1138375147023363.86302373
716080.6464065677023494.86633006716163.5260493477023628.54317325
716246.4056921287023730.13757408716331.9588717727023837.07904864
716457.6151043757023954.71467065716556.5359683387024042.94138716
716692.886348397 7024128.4945668716815.8690441357024198.00652526
716960.2400347857024248.80372568717112.6316360277024315.64214727
717326.5145851377024371.78642141717468.2120389237024422.58362183
717612.5830295737024449.31899047717738.2392621767024508.13680147
717861.221957914 7024542.8927807717970.8369693337024588.34290739
718112.5344231197024636.46657094718227.4965082667024697.95791881
718358.4998145977024796.87878277718478.8089734717024866.39074123
718569.7092268437024946.59684715718655.2624064887025021.45587934
718788.9392496827025131.07089076718917.2690191487025243.35943904
718984.1074407467025326.23908182719061.6400097987025435.85409324
 719200.66392672 7025534.7749572719328.9936961877025623.00167371
719449.3028550617025679.14594785719588.3267719847025708.55485336
719748.7389838177025737.96375886719836.9657003257025719.24900081
719959.9483960647025708.55485336720104.3193867137025681.81948472
720254.0374510917025647.06350549720368.9995362387025588.24569448
720497.3293057047025500.01897797720609.6178539877025406.44518774
720684.4768861767025331.58615555720762.009455229 7025254.0535865
 720831.521413697025155.13272253720882.3186141047025072.25307975
720943.8099619737024997.39404756720967.8717937487024911.84086792
720994.6071623877024796.87878277 721024.01606789 7024705.9785294
721061.4455839847024585.66937052721098.8751000787024468.03374851
721144.3252267647024326.33629473721181.7547428597024203.35359899
721216.5107220897024077.69736639721235.2254801367023957.38820751
721307.4109754617023829.05843805721419.6995237457023748.85233213
721601.5000304897023719.44342662 721753.891631737023719.44342662
721874.200790605 7023772.9141639721959.753970249 7023839.7525855
722061.348371077 7023935.9999126722112.1455714917024029.57370284
722195.0252142717024160.57700917722235.1282672297024240.78311508
722245.8224146857024296.92738922722293.9460782357024443.97191674
722307.3137625547024553.58692816722293.9460782357024671.22255017
722275.2313201887024770.14341413722261.8636358687024874.41135182
722248.4959515497024981.35282638 722256.516562147025064.23246916
722251.1694884137025163.15333312722251.169488413 7025254.0535865
722259.1900990047025360.99506105722253.8430252767025478.63068306
722267.2107095967025625.67521057722275.2313201887025740.63729572
722288.599004507 7025860.9464546722299.2931519627025967.88792915
 722304.640225697026072.15586684722315.334373146 7026179.0973414
722328.702057465 7026275.3446685722331.1022392927026382.68251804
 722325.255214177026532.75616282722319.4081890497026678.93179085
722311.2022132357026819.68281259722299.3198271737026938.50667321
722302.2904236897027039.50695473722299.3198271737027140.50723626
722296.3492306587027253.38990384722305.2610202047027336.56660628
722340.908178389 7027437.5668878722391.4083191517027511.83180069
 722450.820249467027562.33194145722539.9381449237027612.83208221
722617.1736543247027621.74387176722715.2033393337027636.59685433
 722828.086006927027624.71446827722935.027481475 7027592.0379066
723021.1747804227027565.30253796723113.263272401 7027514.8023972
723208.3223608947027479.15523902723312.2932389347027449.44927386
723434.0876960677027419.74330871  723555.8821532 7027398.9491331
723692.5295929097027390.03734355723781.6474883727027384.09615052
723888.5889629287027378.15495749724037.1187886997027404.89032613
724188.6192109867027443.50808083724239.1193517487027482.12583553
724337.149036757 7027553.4201519724432.2081252517027615.80267873
724518.3554241987027690.06759161724649.0616708777027785.12668011
724723.3265837637027895.03875118724806.5032861957027999.00962922
 724874.827006057028105.95110377724931.2683398437028203.98078878
724969.8860945447028316.86345637724999.5920596987028420.83433441
 725017.415638797028530.74640548725047.1216039457028673.33503822
725064.9451830377028795.12949535725091.6805516767028931.77693506
  725115.44532387029118.92451553725201.5926227477029243.68956918
725305.5635007877029341.71925419725406.5637823127029407.07237753
725516.475853383 7029478.3666939725641.2409070317029496.19027299
725766.0059606797029484.30788693725893.7416108427029451.63132526
725994.7418923677029377.36641238726101.6833669227029291.21911343
726202.6836484477029225.86599009726300.7133334567029160.51286675
726392.8018254347029083.27735735726470.0373348357028979.30647931
726544.3022477217028839.68844308 726609.655371067028717.89398595
726654.2143187927028575.30535321726686.8908804617028456.48149259
726704.714459554 7028322.8046494726704.7144595547028162.39243757
726695.8026700087028043.56857695726663.1261083387027912.86233027
 726642.331932737027767.30310101726612.625967576  7027669.273416
 726571.037616367027568.27313448726532.4198616597027473.21404599
726481.9197208977027407.86092265726440.3313696817027327.65481673
726410.6254045277027268.24288642726386.8606324037027211.80155263
726354.1840707337027146.44842929726247.2425961787027024.65397216
726170.0070867777026935.53607669726119.5069460157026867.21235684
726054.1538226757026772.15326834725997.7124888827026683.03537288
725929.3887690277026576.09389833725887.800417811 7026436.4758621
725864.0356456887026287.94603633725852.1532596267026112.68084192
725861.0650491727025961.18041963725923.447575996 7025839.3859625
725982.8595063057025664.12076809726060.0950157067025497.76736323
726146.2423146537025370.03171306 726259.124982247025263.09023851
726386.8606324037025182.88413259726544.3022477217025123.47220228
 726694.31737175 7025108.6192197726881.4649522227025129.41339531
727062.6713396637025168.03115001727169.6128142197025218.53129078
727270.6130957437025254.17844896727359.7309912067025334.38455488
727442.9076936387025399.73767822727523.1137995557025497.76736323
727600.349308956 7025628.4736099727671.6436253267025741.35627749
727736.9967486657025863.15073462 727805.320468527025979.00399872
 727909.291346567026130.50442101728025.1446106627026267.15186072
728158.8214538567026368.15214225728256.8511388657026403.79930043
728396.4691750917026454.29944119728577.675562532 7026513.7113715
728690.5582301187026546.38793317728764.8231430047026567.18210878
728880.6764071067026573.12330181729047.029811969 7026570.1527053
729142.0889004637026528.56435408729246.0597785037026463.21123074
 729358.942446097026388.94631785729456.9721310997026302.79901891
729581.737184747 7026127.5338245729623.325535963 7026011.6805604
729644.1197115717025851.26834856729644.1197115717025756.20926007
729623.3255359637025631.44420642729587.6783777787025503.70855626
729540.1488335317025355.17873049729504.5016753467025251.20785244
729439.1485520067025108.61921971729379.7366216987025028.41311379
729344.0894635127024912.55984969729320.3246913897024805.61837513
729296.5599192667024660.05914588729299.5305157817024508.55872359
729350.0306565437024383.79366994 729430.236762467024285.76398493
729519.3546579237024193.67549295729626.2961324787024119.41058007
729748.0905896117024071.88103582729964.9441352377024024.35149157
730116.444557524  7024009.498509730208.5330495027024039.20447415
730357.0628752747024095.64580794730538.269262715 7024241.2050372
730668.9755093947024327.35233615730817.5053351657024407.55844206
730945.2409853297024458.05858283731028.4176877617024505.58812707
731141.3003553477024532.32349571731277.9477950577024559.05886435
731378.9480765817024559.05886435731500.7425337147024541.23528526
731595.8016222087024502.61753056731705.7136932787024437.26440722
731794.8315887417024368.94068736731866.1259051117024285.76398493
731919.5966423897024175.85191386731943.3614145137024071.88103582
731952.2732040597023982.76314036731940.3908179977023896.61584141
731901.7730632977023822.35092852731851.2729225347023742.14482261
731774.0374131337023658.96812018731690.8607107017023569.85022471
731601.7428152387023462.90875016731515.5955162917023379.73204773
731435.3894103747023269.81997665 731405.683445227023189.61387074
 731373.006883557023076.73120315731402.712848705 7022951.9661495
731426.4776208287022910.37779829731549.5923430797022750.29565273
731780.6387387237022654.57643168731998.4824831887022552.25588504
732183.3195997037022506.04660591732407.764669758 7022446.6346756
732701.5236585067022334.41214057732886.3607750217022205.68629157
732985.3806588697022096.76441934733094.3025311027021944.93393077
733219.7277173087021766.69813985733318.747601156 7021601.6650001
733470.5780897227021383.82125564733579.4999619557021185.78148794
733899.6642530627021086.76160409734107.606009142 7021020.7483482
734302.3451140427020981.14039466734493.7835561487020944.83310391
 734700.074980837020921.72846435734898.1147485267020941.53244112
734959.1770102327020958.03575509
Rch Text X Y=,
Reverse River Text= 0 

Type RM Length L Ch R = 1 ,78.48   ,1078.4,195.5,385.7
XS GIS Cut Line=4
687892.2904683297027818.64936014688488.4759225737025418.28753361
688404.6304011867025211.46858085688520.2151625067022783.23229396
Node Last Edited Time=May/08/2021 04:25:32
#Sta/Elev= 452 
       0   56.93     5.4   57.88    15.7    59.5      26   60.83    36.3   61.79
    46.6   62.38    51.7   62.51    64.1   62.36    80.6   61.74    88.9   61.54
    97.1    61.6   108.4   61.91     129   62.24   134.6   62.19   140.9   62.03
   149.7    61.6     160   60.28   170.3   63.15   179.7   65.44   180.6   65.64
   187.9   66.57   190.9   66.86   204.4   67.55   211.5   67.75   221.8   68.44
   232.1    69.4   242.4   70.77   245.7   71.52   252.7    72.8   264.3   76.11
   270.5   78.08   278.7   80.22     287   82.13   293.9   83.86   304.2   85.97
   314.5   87.15   324.8   87.97   328.2   88.02   335.1   87.91   345.4   86.54
     353   85.17   355.7   84.79     366   82.46   376.3   79.09   386.6   76.02
   396.9   73.39   407.2   71.07   438.2   65.43   469.1   59.37   479.4   57.19
   510.3   50.95   518.1   49.67   541.2    46.4   551.5   44.69   575.9   41.92
     603   38.52   644.2   31.79   658.4   29.07   664.8   28.02   685.5   25.31
   695.8   23.16   706.1    20.7   716.4   19.38   724.4   19.47   726.7    19.4
     737   19.66   747.3   20.11   767.9    20.6   778.2   20.38   788.5   20.01
   798.7   20.06   809.1   19.71   815.2   19.73   829.7    19.5   856.5   19.53
   901.8   19.13   947.3   18.55   955.5   18.36   963.7   18.04     974   17.95
   994.6   18.44  1015.2   19.99  1025.5    19.8  1046.1    18.6  1056.4   18.29
  1066.7   18.34  1079.3   18.77  1097.6   19.01  1112.4   18.82  1128.5   18.77
  1138.8   18.54  1149.1   18.65  1169.7   19.25  1186.6   19.43  1200.6   19.49
  1219.7   19.36  1231.6   18.97  1252.7   17.81  1262.5   16.74  1283.1   15.03
  1285.7   14.93  1293.9   15.19  1296.2   15.35  1303.7   15.94  1324.3   17.85
  1335.2   18.23  1343.5    18.2  1384.7   17.09    1417   16.47  1456.9   16.52
  1468.5   16.32  1478.8   15.78  1489.2   15.03    1492   14.72  1499.5   14.17
  1508.5   13.21  1520.1   12.28    1525   12.08  1530.4   11.69  1533.3   11.78
  1539.2   11.19  1540.7   11.16  1545.1   11.28  1549.8   11.62    1551   11.55
  1558.1   12.19  1561.3   12.27  1571.6   12.86  1574.6   12.89  1580.3   13.21
  1599.3   13.85  1615.8   14.57  1632.3    15.7  1643.7   16.78    1654   17.57
  1657.1   17.69  1664.3   17.86  1674.6    17.8  1684.9   17.19  1695.2   16.24
  1705.5    15.5  1715.8   15.79  1726.1   16.81  1736.4   18.03  1756.2   20.97
  1764.4   21.98  1777.7   23.26  1830.4   27.56  1838.7   28.06  1860.1   29.01
  1880.7   30.12  1901.3   31.81  1918.5   33.44  1932.2   34.41  1942.5   35.69
    1946   36.47  1963.1   40.71  1970.8   41.14  1973.4   41.19    1979    41.2
  1983.7   41.06    1994   41.93  2005.3   43.62    2012   44.42  2020.3   45.83
  2028.5   47.61  2032.7   48.84  2036.8    49.9  2053.3   55.02  2055.9   55.77
  2061.5   57.17  2076.5    60.4  2086.3   62.12  2094.6   62.64  2097.1    62.7
  2102.8   62.42  2117.7   61.45    2128   61.73  2138.3   62.71  2148.6   64.25
  2152.3   64.63  2156.1   65.35  2158.9   65.73  2160.6   65.79  2167.4   66.69
  2169.2   66.77  2179.5    66.1  2189.8   64.98  2200.1   63.11  2210.1   60.76
  2218.4   59.43  2220.7   59.19  2226.6      59  2241.3   59.04  2259.6   57.14
  2261.9   57.01  2267.9   56.19  2276.1   55.32  2282.5    54.8  2323.8   52.64
  2333.9   51.73  2344.4   50.37  2354.7   48.65  2375.3   44.62  2383.4    43.2
  2395.9   41.48  2408.2   40.02  2416.5   39.17  2426.8   37.83  2437.1   35.48
  2447.4   32.36  2457.7   29.51    2468   26.99  2471.3   19.49  2473.3   18.18
  2473.7   17.71  2478.3   17.75  2480.6   16.91  2482.9    16.6  2487.5   15.76
  2491.3   15.51  2494.5   15.04  2501.3   14.47  2501.914.44762  2513.9      14
  2523.7   14.48  2526.9   14.55  2530.1   14.53  2533.4   14.29  2536.6    14.2
  2546.3   13.16  2549.7   12.01  2552.8   11.18    2556   10.83  2561.2    9.57
  2563.5    9.19  2565.7    8.94  2572.2    9.39  2575.4    9.24  2578.7    9.35
    2582       9  2588.4    7.88  2591.2     7.8  2591.6    7.86  2598.1    10.2
  2600.4   10.86  2604.6   11.91  2607.8   12.87  2611.1   13.42  2614.2   14.11
  2616.514.43758  2617.5   14.58    2622      15    2624   15.16  2627.2   15.25
  2630.3    15.6  2637.2   16.52  2646.7   17.97  2648.8   18.47  2651.1   19.31
  2651.9   19.85  2652.6   21.13  2657.5    22.9    2662   26.15  2672.8   28.02
  2683.6   30.77  2687.2    31.6  2694.4   33.02  2704.5    33.8  2714.5   33.96
  2724.6   34.39  2734.6   35.15  2744.6    36.1  2764.6   37.23  2774.6   37.65
  2804.6   38.39  2814.7   38.79  2824.7   39.35  2844.7   40.78  2854.7   41.74
  2864.7   42.84  2874.7   43.54  2894.7   43.76    2905   44.03  2964.8   46.57
  2974.8   46.94  2984.8   47.09  2994.9   47.58  3004.9    49.8  3014.9   53.86
  3019.6   55.63  3024.9   57.55  3029.2   58.73  3034.9   60.24  3054.9   64.62
    3077   69.66    3105   76.97    3115   79.65    3125   82.48  3135.8   85.13
  3153.4   89.26    3165    92.2  3177.8   95.15  3195.1   98.93  3205.1  100.85
  3215.1  101.91  3225.1  101.78  3235.1  101.13  3245.1  100.94  3255.2  101.04
  3265.2  100.58  3272.4   99.87  3285.2   98.84  3295.2   97.44  3305.2   94.78
  3315.2    91.7  3335.2   86.19  3345.3   82.96  3355.3   79.08  3365.3   75.04
  3375.3   71.42  3385.3   68.73  3395.3   66.74  3405.3   65.07  3435.4   60.54
  3455.4   56.85  3478.3   52.31  3495.4   49.43  3505.4   47.93  3525.5   45.86
  3535.5   45.34  3545.5   45.32  3556.3   45.66  3565.5    45.3  3585.5   43.54
  3595.5   43.26  3605.5   43.99  3625.6    46.8  3635.6    48.1  3645.6   49.31
  3655.6   50.36  3665.6   51.25  3675.6   51.79  3685.6    51.9  3695.6   51.65
  3705.7   50.87  3715.7   49.63    3735    46.8  3745.5   45.49  3766.5    43.5
  3787.5   42.85  3795.8   42.48  3805.8   43.29  3815.8   43.34  3855.8    44.1
  3865.8   44.73  3875.9      46  3885.9   48.35  3895.9   51.16  3905.9   53.36
  3915.9   54.48  3925.9   54.97  3935.9   54.96  3945.9   54.76  3955.9   55.19
    3966   55.23    3976   54.77  4003.9    52.8  4029.3   51.17  4039.8   50.75
    4046   50.62  4056.1    50.6  4066.1   50.88  4086.1   51.91  4096.1   52.22
  4116.1   52.61  4156.2   53.72  4166.4   54.09  4176.2   54.28  4186.2   55.04
  4206.2    57.8  4216.2   59.28  4223.7   60.06  4226.2   60.27  4236.3   60.68
  4246.3   60.95  4256.3   61.57  4266.3   62.76  4276.3   63.35  4306.3   66.97
  4326.4   68.37  4336.4    68.9  4356.4   70.87  4365.7   71.46  4376.4   72.45
  4386.4   72.63  4396.4   71.27  4406.5   68.94  4416.5   67.62  4424.4   68.08
  4436.5   68.95  4466.5   68.39  4476.5   68.59  4496.6   69.76  4516.6   70.28
  4526.6   71.08  4536.6   73.52  4546.6   77.79  4556.6   81.61  4575.9   87.79
  4586.7   91.41  4596.4   93.63    4606   95.65  4616.7   97.66  4626.7   98.84
  4646.7  101.85  4666.7  104.28  4686.8  106.23  4720.7  108.85  4739.8  110.54
  4754.6  111.97  4766.9  112.58  4776.9  112.29  4786.9   111.3  4796.9  109.64
  4806.9  107.47  4816.9  105.47  4826.9  104.15  4836.9  103.33    4857   102.2
    4887    99.6    4897   98.98    4917    98.3  4937.1   96.86  4947.1   95.88
  4988.3   89.58  4997.8   88.06  5017.4   84.68  5027.9   83.61  5047.2   82.87
  5055.2   81.89  5059.4   81.19  5064.7    80.7  5067.2   80.25  5069.9   79.97
  5074.3      80  5077.2   79.67  5087.2   80.25    5091   80.67  5107.2   82.76
  5117.3   84.57  5127.4   86.69
#Mann= 3 , 0 , 0 
       0      .1       0  2501.94.98E-02       0  2616.5      .1       0
Bank Sta=2501.9,2616.5
XS Rating Curve= 0 ,0
XS HTab Starting El and Incr=7.8,0.2, 200 
XS HTab Horizontal Distribution= 5 , 5 , 5 
Exp/Cntr(USF)=0,0
Exp/Cntr=0.3,0.1

Type RM Length L Ch R = 1 ,78.29   ,400.2,191.3,625.3
XS GIS Cut Line=4
688057.6851569287027842.65266917688663.796036255 7025339.2793855
688617.5969926417025209.08208077688690.0633672777022775.45687544
Node Last Edited Time=May/08/2021 04:25:32
#Sta/Elev= 451 
       0    55.5     9.5   56.93    13.5   57.71    30.1   61.41    40.4   63.95
    50.7   66.73      61   69.72    81.5   74.31    91.8    75.5   104.6    77.4
   112.4   78.38   122.7   79.49     133   80.09     146   80.18   153.6   80.58
   162.6   81.23   170.9   82.12   179.2   83.36   187.5   84.84   195.7   86.61
     205   88.08   237.2   91.66     262   94.77   270.3   95.97   278.6   97.32
   303.4  101.75   311.7   102.9   318.2  103.61   328.3  104.28   338.8  104.65
   359.3  104.88   369.6  104.72   379.9  104.17   390.2  103.38   411.1  102.02
   419.4   100.9   427.7   98.83   431.4   97.66     436   95.94   441.6   93.63
   454.9   87.48   472.5   80.12   493.1   70.51   503.4   66.44   513.7   62.82
     524   59.49   534.2   56.86   539.9   55.88   554.8   53.96   565.1   53.44
   568.5   53.97   573.2   55.18   575.4   55.62   576.8   56.06   586.7   60.27
     596    63.6   601.6   65.02   606.3   66.15   618.2   68.27   626.8   69.63
   637.1   70.89   647.4   71.18   657.7   70.88   667.4   70.36   676.2   70.06
   717.6   69.02   729.7   69.05     740   68.87   767.3   68.71   800.4   67.39
   822.3   67.71   832.6   66.88   853.2    62.5   863.5   58.94   866.7   57.46
   871.8   54.57   873.8   53.59   884.1      49   904.6   41.89   916.4   38.41
   924.7    36.1   935.5   32.85   945.8   30.69   956.1   29.54   966.4   29.42
   982.7   29.55  1007.5   30.04  1017.8    30.1  1028.1   29.75  1038.4   29.23
  1049.9   28.25    1059   27.01  1079.6   24.62  1089.8    23.1  1098.6   21.39
  1106.9   20.26  1110.4   19.95  1115.2   19.83  1120.7    19.8  1141.3   20.43
  1151.6   20.63  1161.9   20.66  1172.2      21  1177.4   21.39  1192.7   23.34
  1214.6   25.78  1223.6   26.94  1233.9   27.67  1244.2   27.85  1254.5   27.74
  1262.4   27.43  1272.6   26.53  1289.1   25.33  1336.8   23.19  1347.1   22.62
  1357.4   21.53  1377.9   19.11  1398.5      17  1408.8   16.08  1419.1   15.29
  1429.4   14.84  1439.7   14.65    1450   14.67  1460.2   14.44  1470.5   14.72
  1480.8   14.44  1491.1   14.51  1501.4   14.31    1522   14.99  1542.6   15.82
  1552.8   15.93  1573.4   15.83  1583.7    15.9    1594   16.21  1624.9   18.21
  1635.2   18.51  1645.5   18.51  1653.6   17.96    1666   17.68  1678.5    18.3
  1686.6   18.49  1717.5   17.21  1727.8   16.01  1736.4    14.5  1748.3   12.68
    1753   12.22  1758.6   11.47  1761.3   11.53  1767.8   11.23  1768.9   11.22
  1777.9   12.03  1779.2   12.06  1786.1   12.81  1799.8   13.81  1810.1   14.12
  1844.1   14.05  1871.8   14.19  1892.4   14.11  1902.7   13.89  1923.3   13.16
  1951.8   11.88  1974.7   11.28  1984.8   11.09  1995.3    11.2  2005.6   11.03
  2015.9   10.98  2018.1   11.07  2026.1   10.96  2039.4   11.82  2067.3   14.67
  2077.6   15.54  2087.9   16.28  2100.9   16.95  2108.5   17.16  2118.7   17.16
  2149.6   16.62  2154.8   16.62  2170.2   16.92  2211.3   18.05  2221.6   18.09
  2231.9   17.97    2250   18.13  2273.1   18.12  2283.4   18.36  2291.4   18.82
  2303.9   19.34  2316.3   19.24  2324.5      19  2332.8    19.2  2355.4   20.23
    2376   20.51  2386.3   20.78  2406.8    21.8  2417.1   21.92  2440.5   21.45
  2468.6   21.34  2481.9   21.13  2499.4   20.55    2520   19.47  2530.3   19.37
  2541.7    19.5  2550.9   19.46  2556.5   18.53  2561.2   17.92  2564.8   16.36
  2571.5   13.81  2572.2   14.68  2573.3   15.24  2576.215.11111  2578.7      15
  2583.4   14.26    2586   13.72  2598.7   12.63  2611.4   12.26    2621   12.66
  2624.2   12.65  2633.7   12.24  2640.1   11.74  2642.2   11.43  2643.3   11.23
  2646.4   10.28  2649.6    9.71  2652.8     9.4    2656    8.67  2659.2    8.18
  2671.9    8.33  2675.1    7.92  2681.5    6.49  2684.5    6.48    2691    8.94
  2693.8    9.62  2697.4    10.1  2700.6   10.68  2703.7   11.44  2706.9   11.78
  2712.212.60811  2713.3   12.78  2716.3   12.77  2722.3   13.06  2728.3   13.02