Flow Title=Condicoes1983
Program Version=5.07
Use Restart= 0 
Boundary Location=Itajai          ,Trecho 1        ,78.48   ,        ,                ,                ,                ,                                
Interval=1DAY
Flow Hydrograph= 100 
 189.324 168.531 158.349 165.740 282.866 346.365 374.625 369.659 356.305 288.131
 246.659 222.512 445.487 748.170 675.885 544.770 450.877 403.368 310.483 320.178
 313.707 327.767 2248.23 2320.45 582.430 401.652 389.729 334.303 310.483 289.187
 928.925 887.580 474.557 443.697 403.368 318.018 299.791 289.187 278.671 268.247
 214.593 219.535 152.857 195.090 200.896 323.425 837.630 669.470 527.310 757.150
 658.835 617.035 275.534 333.212 405.087 502.520 608.815 723.725 1166.48 919.125
 686.635 606.765 480.094 425.961 405.087 367.426 352.985 322.342 280.767 714.925
 2169.92 3570.97 3969.22 3483.96 3376.50 3479.64 3406.45 2719.41 1825.82 1423.89
 2037.47 1881.95 1388.70 1065.56 887.580 754.900 658.835 604.720 946.180 1489.40
 1942.17 1925.37 2027.17 1553.11 1362.55 1871.99 2082.38 1709.36 1356.77 1055.16
DSS Path=
Use DSS=False
Use Fixed Start Time=True
Fixed Start Date/Time=28APR1983,1200
Is Critical Boundary=False
Critical Boundary Flow=
Boundary Location=Itajai          ,Trecho 1        ,0.86    ,        ,                ,                ,                ,                                
Interval=2HOUR
Stage Hydrograph= 1195 
      .6     .55    .567     .56      .6    .467      .6    .675    .675     .62
     .65     .64    .617    .633    .617    .633    .617      .6    .575    .467
      .6     .65    .675     .65    .675    .675     .66      .6    .614    .614
    .625     .56    .575      .6      .6    .467    .675      .7     .65     .65
     .62     .65    .667     .65     .68     .65      .6    .575      .6    .467
      .6     .65    .675      .7      .6    .586      .6    .575      .6    .614
    .614      .6      .6    .625      .5     .65     .64      .6     .65     .65
     .66     .65     .65      .7      .6      .6     .62      .6    .625    .433
    .625      .6     .65     .65     .64      .6    .643    .588      .6      .6
    .614    .586    .617      .6      .5    .625    .617     .65     .65     .65
     .65    .625      .7    .633    .617    .617    .575    .575    .433    .575
      .6    .625    .625    .675     .65    .629    .563    .614    .588    .613
      .6    .617     .56    .467      .6      .6    .625     .65     .65     .65
    .625    .625    .733      .6      .6    .583      .6      .4     .55     .55
    .575     .65     .65    .586     .64    .583      .6      .6    .613      .6
      .6    .633    .467    .575      .6     .65    .625      .7     .65    .675
     .65    .625      .7      .6    .583      .5    .583     .55    .575      .6
     .65      .7     .66     .66      .6      .6    .633    .633    .575    .633
     .62    .467    .575    .625    .675    .675     .65    .675      .7    .675
    .675    .633    .571    .533    .567     .55    .575    .575      .6    .675
    .725      .6     .66     .65     .62    .633    .633      .6    .617     .62
     .62      .5      .6    .625    .675    .675      .7      .7      .7    .557
    .588    .557     .56     .62    .575    .433      .6    .625    .675      .6
    .617     .64     .65     .64     .65    .633    .633    .617    .633      .6
    .625    .467    .625     .65    .675      .7     .66    .586    .617    .614
    .617      .6     .62     .62      .6      .5      .6    .625    .617     .65
     .65    .625     .64     .65     .65     .65    .617    .617     .62    .575
      .6    .533    .625     .65     .65    .675     .68     .66    .614      .6
    .575      .6      .6      .6    .617      .6      .6     .62    .633     .65
     .65     .65      .6    .625     .62    .633    .633      .6     .58      .6
      .5    .575      .6    .625     .65     .65    .633      .6     .55    .588
    .588    .613    .614    .633      .6      .6    .625     .62     .65    .625
     .65     .65    .625      .6     .65     .64      .6      .6    .575     .55
    .575    .575    .625     .65    .675      .7    .567    .583      .6    .617
      .6    .613    .629     .65      .5      .6    .625    .625     .65     .65
     .65    .625    .625    .625      .6    .586    .583     .55     .55    .575
    .575    .575     .65      .7      .6    .583      .6    .617    .633    .633
      .6    .633     .64      .5      .6    .625     .65     .65     .65    .675
     .65     .65    .625     .65      .6    .567      .6    .575      .6    .433
      .6     .65    .675      .6    .633     .65    .633    .633     .65      .6
    .617    .617    .575      .5    .625    .625    .675    .675     .65    .675
    .675    .583    .667      .6     .62    .575    .575      .6      .6    .467
    .625     .64    .633     .65     .65    .667     .65      .7      .6     .65
      .6      .6      .6      .5      .6     .65    .675    .675     .64    .617
    .586     .74    .667    .614     .62    .575      .6    .575    .467    .625
     .64    .633     .65    .667    .667    .667      .6     .55    .567     .56
      .6    .467      .6    .675    .675     .62     .65     .64    .617    .633
    .617    .633    .617      .6    .575    .467      .6     .65    .675     .65
    .675    .675     .66      .6    .614    .614    .625     .56    .575      .6
      .6    .467    .675      .7     .65     .65     .62      .6     .55    .567
     .56      .6    .467      .6    .675    .675     .62     .65     .64    .617
    .633    .617    .633    .617      .6    .575    .467      .6     .65    .675
     .65    .675    .675     .66      .6    .614    .614    .625     .56    .575
      .6      .6    .467    .675      .7     .65     .65     .62     .65    .667
     .65     .68     .65      .6    .575      .6    .467      .6     .65    .675
      .7      .6    .586      .6    .575      .6    .614    .614      .6      .6
    .625      .5     .65     .64      .6     .65     .65     .66     .65     .65
      .7      .6      .6     .62      .6    .625    .433    .625      .6     .65
     .65     .64      .6    .643    .588      .6      .6    .614    .586    .617
      .6      .5    .625    .617     .65     .65     .65     .65    .625      .7
    .633    .617    .617    .575    .575    .433    .575      .6    .625    .625
    .675     .65    .629    .563    .614    .588    .613      .6    .617     .56
    .467      .6      .6    .625     .65     .65     .65    .625    .625    .733
      .6      .6    .583      .6      .4     .55     .55    .575     .65     .65
    .586     .64    .583      .6      .6    .613      .6      .6    .633    .467
    .575      .6     .65    .625      .7     .65    .675     .65    .625      .7
      .6    .583      .5    .583     .55    .575      .6     .65      .7     .66
     .66      .6      .6    .633    .633    .575    .633     .62    .467    .575
    .625    .675    .675     .65    .675      .7    .675    .675    .633    .571
    .533    .567     .55    .575    .575      .6    .675    .725      .6     .66
     .65     .62    .633    .633      .6    .617     .62     .62      .5      .6
    .625    .675    .675      .7      .7      .7    .557    .588    .557     .56
     .62    .575    .433      .6    .625    .675      .6    .617     .64     .65
     .64     .65    .633    .633    .617    .633      .6    .625    .467    .625
     .65    .675      .7     .66    .586    .617    .614    .617      .6     .62
     .62      .6      .5      .6    .625    .617     .65     .65    .625     .64
     .65     .65     .65    .617    .617     .62    .575      .6    .533    .625
     .65     .65    .675     .68     .66    .614      .6    .575      .6      .6
      .6    .617      .6      .6     .62    .633     .65     .65      .6     .55
    .567     .56      .6    .467      .6    .675    .675     .62     .65     .64
    .617    .633    .617    .633    .617      .6    .575    .467      .6     .65
    .675     .65    .675    .675     .66      .6    .614    .614    .625     .56
    .575      .6      .6    .467    .675      .7     .65     .65     .62     .65
    .667     .65     .68     .65      .6    .575      .6    .467      .6     .65
    .675      .7      .6    .586      .6    .575      .6    .614    .614      .6
      .6    .625      .5     .65     .64      .6     .65     .65     .66     .65
     .65      .7      .6      .6     .62      .6    .625    .433    .625      .6
     .65     .65     .64      .6    .643    .588      .6      .6    .614    .586
    .617      .6      .5    .625    .617     .65     .65     .65     .65    .625
      .7    .633    .617    .617    .575    .575    .433    .575      .6    .625
    .625    .675     .65    .629    .563    .614    .588    .613      .6    .617
     .56    .467      .6      .6    .625     .65     .65     .65    .625    .625
    .733      .6      .6    .583      .6      .4     .55     .55    .575     .65
     .65    .586     .64    .583      .6      .6    .613      .6      .6    .633
    .467    .575      .6     .65    .625      .7     .65    .675     .65    .625
      .7      .6    .583      .5    .583     .55    .575      .6     .65      .7
     .66     .66      .6      .6    .633    .633    .575    .633     .62    .467
    .575    .625    .675    .675     .65    .675      .7    .675    .675    .633
    .571    .533    .567     .55    .575    .575      .6    .675    .725      .6
     .66     .65     .62    .633    .633      .6    .617     .62     .62      .5
      .6    .625    .675    .675      .7      .7      .7    .557    .588    .557
     .56     .62    .575    .433      .6    .625    .675      .6    .617     .64
     .65     .64     .65    .633    .633    .617    .633      .6    .625    .467
    .625     .65    .675      .7     .66    .586    .617    .614    .617      .6
     .62     .62      .6      .5      .6    .625    .617     .65     .65    .625
     .64     .65     .65     .65    .617    .617     .62    .575      .6    .533
    .625     .65     .65    .675     .68     .66    .614      .6    .575      .6
      .6      .6    .617      .6      .6     .62    .633     .65     .65      .6
     .55    .567     .56      .6    .467      .6    .675    .675     .62     .65
     .64    .617    .633    .617    .633    .617      .6    .575    .467      .6
     .65    .675     .65    .675    .675     .66      .6    .614    .614    .625
     .56    .575      .6      .6    .467    .675      .7     .65     .65     .62
     .65    .667     .65     .68     .65      .6    .575      .6    .467      .6
     .65    .675      .7      .6    .586      .6    .575      .6    .614    .614
      .6      .6    .625      .5     .65     .64      .6     .65     .65     .66
     .65     .65      .7      .6      .6     .62      .6    .625    .433    .625
      .6     .65     .65     .64      .6    .643    .588      .6      .6    .614
    .586    .617      .6      .5    .625    .617     .65     .65     .65     .65
    .625      .7    .633    .617    .617    .575    .575    .433    .575      .6
    .625    .625    .675     .65.6298889
DSS Path=
Use DSS=False
Use Fixed Start Time=False
Fixed Start Date/Time=,
Is Critical Boundary=False
Critical Boundary Flow=
