Flow Title=CondicoesTR50
Program Version=5.07
Use Restart= 0 
Boundary Location=Itajai          ,Trecho 1        ,78.48   ,        ,                ,                ,                ,                                
Interval=8HOUR
Flow Hydrograph= 101 
     450     450     450     450     450     450     450     450     450     450
     450     450     450     450   490.2   723.8  1007.2  1347.3  1744.6  2189.7
  2642.7  3061.5  3428.5  3736.6  3977.1  4144.7  4259.3  4316.4  4294.5  4220.4
  4108.1  3951.4  3747.7  3497.4  3214.2  2931.9  2670.4  2431.6  2204.6  1989.7
  1792.3  1612.8  1448.4  1296.3    1155  1026.6   913.7     816   730.5   654.2
   585.2     523   467.1     450     450     450     450     450     450     450
     450     450     450     450     450     450     450     450     450     450
     450     450     450     450     450     450     450     450     450     450
     450     450     450     450     450     450     450     450     450     450
     450     450     450     450     450     450     450     450     450     450
     450
DSS Path=
Use DSS=False
Use Fixed Start Time=True
Fixed Start Date/Time=01JAN2000,0000
Is Critical Boundary=False
Critical Boundary Flow=
Boundary Location=Itajai          ,Trecho 1        ,0.86    ,        ,                ,                ,                ,                                
Interval=2HOUR
Stage Hydrograph= 497 
      .6     .55    .567     .56      .6    .467      .6    .675    .675     .62
     .65     .64    .617    .633    .617    .633    .617      .6    .575    .467
      .6     .65    .675     .65    .675    .675     .66      .6    .614    .614
    .625     .56    .575      .6      .6    .467    .675      .7     .65     .65
     .62     .65    .667     .65     .68     .65      .6    .575      .6    .467
      .6     .65    .675      .7      .6    .586      .6    .575      .6    .614
    .614      .6      .6    .625      .5     .65     .64      .6     .65     .65
     .66     .65     .65      .7      .6      .6     .62      .6    .625    .433
    .625      .6     .65     .65     .64      .6    .643    .588      .6      .6
    .614    .586    .617      .6      .5    .625    .617     .65     .65     .65
     .65    .625      .7    .633    .617    .617    .575    .575    .433    .575
      .6    .625    .625    .675     .65    .629    .563    .614    .588    .613
      .6    .617     .56    .467      .6      .6    .625     .65     .65     .65
    .625    .625    .733      .6      .6    .583      .6      .4     .55     .55
    .575     .65     .65    .586     .64    .583      .6      .6    .613      .6
      .6    .633    .467    .575      .6     .65    .625      .7     .65    .675
     .65    .625      .7      .6    .583      .5    .583     .55    .575      .6
     .65      .7     .66     .66      .6      .6    .633    .633    .575    .633
     .62    .467    .575    .625    .675    .675     .65    .675      .7    .675
    .675    .633    .571    .533    .567     .55    .575    .575      .6    .675
    .725      .6     .66     .65     .62    .633    .633      .6    .617     .62
     .62      .5      .6    .625    .675    .675      .7      .7      .7    .557
    .588    .557     .56     .62    .575    .433      .6    .625    .675      .6
    .617     .64     .65     .64     .65    .633    .633    .617    .633      .6
    .625    .467    .625     .65    .675      .7     .66    .586    .617    .614
    .617      .6     .62     .62      .6      .5      .6    .625    .617     .65
     .65    .625     .64     .65     .65     .65    .617    .617     .62    .575
      .6    .533    .625     .65     .65    .675     .68     .66    .614      .6
    .575      .6      .6      .6    .617      .6      .6     .62    .633     .65
     .65     .65      .6    .625     .62    .633    .633      .6     .58      .6
      .5    .575      .6    .625     .65     .65    .633      .6     .55    .588
    .588    .613    .614    .633      .6      .6    .625     .62     .65    .625
     .65     .65    .625      .6     .65     .64      .6      .6    .575     .55
    .575    .575    .625     .65    .675      .7    .567    .583      .6    .617
      .6    .613    .629     .65      .5      .6    .625    .625     .65     .65
     .65    .625    .625    .625      .6    .586    .583     .55     .55    .575
    .575    .575     .65      .7      .6    .583      .6    .617    .633    .633
      .6    .633     .64      .5      .6    .625     .65     .65     .65    .675
     .65     .65    .625     .65      .6    .567      .6    .575      .6    .433
      .6     .65    .675      .6    .633     .65    .633    .633     .65      .6
    .617    .617    .575      .5    .625    .625    .675    .675     .65    .675
    .675    .583    .667      .6     .62    .575    .575      .6      .6    .467
    .625     .64    .633     .65     .65    .667     .65      .7      .6     .65
      .6      .6      .6      .5      .6     .65    .675    .675     .64    .617
    .586     .74    .667    .614     .62    .575      .6    .575    .467    .625
     .64    .633     .65    .667    .667    .667      .6     .55    .567     .56
      .6    .467      .6    .675    .675     .62     .65     .64    .617    .633
    .617    .633    .617      .6    .575    .467      .6     .65    .675     .65
    .675    .675     .66      .6    .614    .614    .625     .56    .575      .6
      .6    .467    .675      .7     .65     .65     .62
DSS Path=
Use DSS=False
Use Fixed Start Time=False
Fixed Start Date/Time=,
Is Critical Boundary=False
Critical Boundary Flow=
