Flow Title=Condicoes1983
Program Version=5.07
Use Restart= 0 
Boundary Location=Itajai          ,Trecho 1        ,78.48   ,        ,                ,                ,                ,                                
Interval=1DAY
Flow Hydrograph= 100 
 321.851 286.504 269.193 281.758 480.873 588.820 636.863 628.421 605.718 489.823
 419.320 378.270 757.328 1271.89 1149.00 926.109 766.492 685.726 527.820 544.303
 533.302 557.204 3821.99 3944.76 990.131 682.809 662.539 568.316 527.820 491.617
 1579.17 1508.89 806.746 754.284 685.726 540.631 509.645 491.617 473.741 456.019
 364.808 373.209 259.858 331.653 341.523 549.823 1423.97 1138.10 896.427 1287.15
 1120.02 1048.96 468.408 566.460 688.649 854.284 1034.99 1230.33 1983.02 1562.51
 1167.28 1031.50 816.161 724.133 688.649 624.624 600.074 547.982 477.304 1215.37
 3688.86 6070.64 6747.67 5922.73 5740.05 5915.38 5790.96 4623.01 3103.89 2420.62
 3463.70 3199.32 2360.79 1811.44 1508.89 1283.33 1120.02 1028.02 1608.51 2531.99
 3301.70 3273.12 3446.19 2640.29 2316.33 3182.38 3540.05 2905.91 2306.50 1793.77
DSS Path=
Use DSS=False
Use Fixed Start Time=True
Fixed Start Date/Time=28APR1983,1200
Is Critical Boundary=False
Critical Boundary Flow=
Boundary Location=Itajai          ,Trecho 1        ,0.86    ,        ,                ,                ,                ,                                
Interval=2HOUR
Stage Hydrograph= 1195 
      .6     .55    .567     .56      .6    .467      .6    .675    .675     .62
     .65     .64    .617    .633    .617    .633    .617      .6    .575    .467
      .6     .65    .675     .65    .675    .675     .66      .6    .614    .614
    .625     .56    .575      .6      .6    .467    .675      .7     .65     .65
     .62     .65    .667     .65     .68     .65      .6    .575      .6    .467
      .6     .65    .675      .7      .6    .586      .6    .575      .6    .614
    .614      .6      .6    .625      .5     .65     .64      .6     .65     .65
     .66     .65     .65      .7      .6      .6     .62      .6    .625    .433
    .625      .6     .65     .65     .64      .6    .643    .588      .6      .6
    .614    .586    .617      .6      .5    .625    .617     .65     .65     .65
     .65    .625      .7    .633    .617    .617    .575    .575    .433    .575
      .6    .625    .625    .675     .65    .629    .563    .614    .588    .613
      .6    .617     .56    .467      .6      .6    .625     .65     .65     .65
    .625    .625    .733      .6      .6    .583      .6      .4     .55     .55
    .575     .65     .65    .586     .64    .583      .6      .6    .613      .6
      .6    .633    .467    .575      .6     .65    .625      .7     .65    .675
     .65    .625      .7      .6    .583      .5    .583     .55    .575      .6
     .65      .7     .66     .66      .6      .6    .633    .633    .575    .633
     .62    .467    .575    .625    .675    .675     .65    .675      .7    .675
    .675    .633    .571    .533    .567     .55    .575    .575      .6    .675
    .725      .6     .66     .65     .62    .633    .633      .6    .617     .62
     .62      .5      .6    .625    .675    .675      .7      .7      .7    .557
    .588    .557     .56     .62    .575    .433      .6    .625    .675      .6
    .617     .64     .65     .64     .65    .633    .633    .617    .633      .6
    .625    .467    .625     .65    .675      .7     .66    .586    .617    .614
    .617      .6     .62     .62      .6      .5      .6    .625    .617     .65
     .65    .625     .64     .65     .65     .65    .617    .617     .62    .575
      .6    .533    .625     .65     .65    .675     .68     .66    .614      .6
    .575      .6      .6      .6    .617      .6      .6     .62    .633     .65
     .65     .65      .6    .625     .62    .633    .633      .6     .58      .6
      .5    .575      .6    .625     .65     .65    .633      .6     .55    .588
    .588    .613    .614    .633      .6      .6    .625     .62     .65    .625
     .65     .65    .625      .6     .65     .64      .6      .6    .575     .55
    .575    .575    .625     .65    .675      .7    .567    .583      .6    .617
      .6    .613    .629     .65      .5      .6    .625    .625     .65     .65
     .65    .625    .625    .625      .6    .586    .583     .55     .55    .575
    .575    .575     .65      .7      .6    .583      .6    .617    .633    .633
      .6    .633     .64      .5      .6    .625     .65     .65     .65    .675
     .65     .65    .625     .65      .6    .567      .6    .575      .6    .433
      .6     .65    .675      .6    .633     .65    .633    .633     .65      .6
    .617    .617    .575      .5    .625    .625    .675    .675     .65    .675
    .675    .583    .667      .6     .62    .575    .575      .6      .6    .467
    .625     .64    .633     .65     .65    .667     .65      .7      .6     .65
      .6      .6      .6      .5      .6     .65    .675    .675     .64    .617
    .586     .74    .667    .614     .62    .575      .6    .575    .467    .625
     .64    .633     .65    .667    .667    .667      .6     .55    .567     .56
      .6    .467      .6    .675    .675     .62     .65     .64    .617    .633
    .617    .633    .617      .6    .575    .467      .6     .65    .675     .65
    .675    .675     .66      .6    .614    .614    .625     .56    .575      .6
      .6    .467    .675      .7     .65     .65     .62      .6     .55    .567
     .56      .6    .467      .6    .675    .675     .62     .65     .64    .617
    .633    .617    .633    .617      .6    .575    .467      .6     .65    .675
     .65    .675    .675     .66      .6    .614    .614    .625     .56    .575
      .6      .6    .467    .675      .7     .65     .65     .62     .65    .667
     .65     .68     .65      .6    .575      .6    .467      .6     .65    .675
      .7      .6    .586      .6    .575      .6    .614    .614      .6      .6
    .625      .5     .65     .64      .6     .65     .65     .66     .65     .65
      .7      .6      .6     .62      .6    .625    .433    .625      .6     .65
     .65     .64      .6    .643    .588      .6      .6    .614    .586    .617
      .6      .5    .625    .617     .65     .65     .65     .65    .625      .7
    .633    .617    .617    .575    .575    .433    .575      .6    .625    .625
    .675     .65    .629    .563    .614    .588    .613      .6    .617     .56
    .467      .6      .6    .625     .65     .65     .65    .625    .625    .733
      .6      .6    .583      .6      .4     .55     .55    .575     .65     .65
    .586     .64    .583      .6      .6    .613      .6      .6    .633    .467
    .575      .6     .65    .625      .7     .65    .675     .65    .625      .7
      .6    .583      .5    .583     .55    .575      .6     .65      .7     .66
     .66      .6      .6    .633    .633    .575    .633     .62    .467    .575
    .625    .675    .675     .65    .675      .7    .675    .675    .633    .571
    .533    .567     .55    .575    .575      .6    .675    .725      .6     .66
     .65     .62    .633    .633      .6    .617     .62     .62      .5      .6
    .625    .675    .675      .7      .7      .7    .557    .588    .557     .56
     .62    .575    .433      .6    .625    .675      .6    .617     .64     .65
     .64     .65    .633    .633    .617    .633      .6    .625    .467    .625
     .65    .675      .7     .66    .586    .617    .614    .617      .6     .62
     .62      .6      .5      .6    .625    .617     .65     .65    .625     .64
     .65     .65     .65    .617    .617     .62    .575      .6    .533    .625
     .65     .65    .675     .68     .66    .614      .6    .575      .6      .6
      .6    .617      .6      .6     .62    .633     .65     .65      .6     .55
    .567     .56      .6    .467      .6    .675    .675     .62     .65     .64
    .617    .633    .617    .633    .617      .6    .575    .467      .6     .65
    .675     .65    .675    .675     .66      .6    .614    .614    .625     .56
    .575      .6      .6    .467    .675      .7     .65     .65     .62     .65
    .667     .65     .68     .65      .6    .575      .6    .467      .6     .65
    .675      .7      .6    .586      .6    .575      .6    .614    .614      .6
      .6    .625      .5     .65     .64      .6     .65     .65     .66     .65
     .65      .7      .6      .6     .62      .6    .625    .433    .625      .6
     .65     .65     .64      .6    .643    .588      .6      .6    .614    .586
    .617      .6      .5    .625    .617     .65     .65     .65     .65    .625
      .7    .633    .617    .617    .575    .575    .433    .575      .6    .625
    .625    .675     .65    .629    .563    .614    .588    .613      .6    .617
     .56    .467      .6      .6    .625     .65     .65     .65    .625    .625
    .733      .6      .6    .583      .6      .4     .55     .55    .575     .65
     .65    .586     .64    .583      .6      .6    .613      .6      .6    .633
    .467    .575      .6     .65    .625      .7     .65    .675     .65    .625
      .7      .6    .583      .5    .583     .55    .575      .6     .65      .7
     .66     .66      .6      .6    .633    .633    .575    .633     .62    .467
    .575    .625    .675    .675     .65    .675      .7    .675    .675    .633
    .571    .533    .567     .55    .575    .575      .6    .675    .725      .6
     .66     .65     .62    .633    .633      .6    .617     .62     .62      .5
      .6    .625    .675    .675      .7      .7      .7    .557    .588    .557
     .56     .62    .575    .433      .6    .625    .675      .6    .617     .64
     .65     .64     .65    .633    .633    .617    .633      .6    .625    .467
    .625     .65    .675      .7     .66    .586    .617    .614    .617      .6
     .62     .62      .6      .5      .6    .625    .617     .65     .65    .625
     .64     .65     .65     .65    .617    .617     .62    .575      .6    .533
    .625     .65     .65    .675     .68     .66    .614      .6    .575      .6
      .6      .6    .617      .6      .6     .62    .633     .65     .65      .6
     .55    .567     .56      .6    .467      .6    .675    .675     .62     .65
     .64    .617    .633    .617    .633    .617      .6    .575    .467      .6
     .65    .675     .65    .675    .675     .66      .6    .614    .614    .625
     .56    .575      .6      .6    .467    .675      .7     .65     .65     .62
     .65    .667     .65     .68     .65      .6    .575      .6    .467      .6
     .65    .675      .7      .6    .586      .6    .575      .6    .614    .614
      .6      .6    .625      .5     .65     .64      .6     .65     .65     .66
     .65     .65      .7      .6      .6     .62      .6    .625    .433    .625
      .6     .65     .65     .64      .6    .643    .588      .6      .6    .614
    .586    .617      .6      .5    .625    .617     .65     .65     .65     .65
    .625      .7    .633    .617    .617    .575    .575    .433    .575      .6
    .625    .625    .675     .65.6298889
DSS Path=
Use DSS=False
Use Fixed Start Time=False
Fixed Start Date/Time=,
Is Critical Boundary=False
Critical Boundary Flow=
