Proj Title=ItajaiProjeto
Current Plan=p28
Default Exp/Contr=0.3,0.1
SI Units
Geom File=g01
Geom File=g02
Geom File=g03
Geom File=g04
Geom File=g05
Geom File=g06
Geom File=g07
Geom File=g08
Geom File=g09
Geom File=g10
Geom File=g11
Geom File=g12
Geom File=g13
Geom File=g14
Unsteady File=u01
Unsteady File=u02
Unsteady File=u03
Unsteady File=u04
Unsteady File=u05
Unsteady File=u06
Unsteady File=u07
Plan File=p01
Plan File=p02
Plan File=p03
Plan File=p04
Plan File=p05
Plan File=p06
Plan File=p07
Plan File=p08
Plan File=p09
Plan File=p10
Plan File=p11
Plan File=p12
Plan File=p13
Plan File=p14
Plan File=p15
Plan File=p16
Plan File=p17
Plan File=p18
Plan File=p19
Plan File=p20
Plan File=p21
Plan File=p22
Plan File=p23
Plan File=p24
Plan File=p25
Plan File=p26
Plan File=p27
Plan File=p28
Plan File=p29
Plan File=p30
Plan File=p31
Plan File=p32
Background Map Layer=Google Satellite
Y Axis Title=Elevation
X Axis Title(PF)=Main Channel Distance
X Axis Title(XS)=Station
BEGIN DESCRIPTION:

END DESCRIPTION:
DSS Start Date=
DSS Start Time=
DSS End Date=
DSS End Time=
DSS File=dss
DSS Export Filename=
DSS Export Rating Curves= 0 
DSS Export Rating Curve Sorted= 0 
DSS Export Volume Flow Curves= 0 
DXF Filename=
DXF OffsetX= 0 
DXF OffsetY= 0 
DXF ScaleX= 1 
DXF ScaleY= 10 
GIS Export Profiles= 0 
