Flow Title=Condicoes1983
Program Version=5.07
Use Restart= 0 
Boundary Location=Itajai          ,Trecho 1        ,78.48   ,        ,                ,                ,                ,                                
Interval=1DAY
Flow Hydrograph= 100 
 378.648 337.063 316.698 331.480 565.733 692.729 749.251 739.319 712.610 576.262
 493.318 445.024 890.974 1496.34 1351.77 1089.54 901.755 806.737 620.965 640.357
 627.414 655.534 4496.46 4640.90 1164.86 803.305 779.458 668.607 620.965 578.373
 1857.85 1775.16 949.113 887.393 806.737 636.036 599.582 578.373 557.342 536.493
 429.186 439.069 305.715 390.180 401.792 646.851 1675.26 1338.94 1054.62 1514.30
 1317.67 1234.07 551.068 666.424 810.175 1005.04 1217.63 1447.45 2332.97 1838.25
 1373.27 1213.53 960.189 851.921 810.175 734.852 705.969 644.685 561.534 1429.85
 4339.84 7141.93 7938.43 6967.92 6753.00 6959.27 6812.89 5438.83 3651.63 2847.79
 4074.94 3763.90 2777.40 2131.11 1775.16 1509.80 1317.67 1209.44 1892.36 2978.81
 3884.35 3850.73 4054.34 3106.22 2725.09 3743.98 4164.76 3418.72 2713.53 2110.32
DSS Path=
Use DSS=False
Use Fixed Start Time=True
Fixed Start Date/Time=28APR1983,1200
Is Critical Boundary=False
Critical Boundary Flow=
Boundary Location=Itajai          ,Trecho 1        ,0.86    ,        ,                ,                ,                ,                                
Interval=2HOUR
Stage Hydrograph= 1195 
      .6     .55    .567     .56      .6    .467      .6    .675    .675     .62
     .65     .64    .617    .633    .617    .633    .617      .6    .575    .467
      .6     .65    .675     .65    .675    .675     .66      .6    .614    .614
    .625     .56    .575      .6      .6    .467    .675      .7     .65     .65
     .62     .65    .667     .65     .68     .65      .6    .575      .6    .467
      .6     .65    .675      .7      .6    .586      .6    .575      .6    .614
    .614      .6      .6    .625      .5     .65     .64      .6     .65     .65
     .66     .65     .65      .7      .6      .6     .62      .6    .625    .433
    .625      .6     .65     .65     .64      .6    .643    .588      .6      .6
    .614    .586    .617      .6      .5    .625    .617     .65     .65     .65
     .65    .625      .7    .633    .617    .617    .575    .575    .433    .575
      .6    .625    .625    .675     .65    .629    .563    .614    .588    .613
      .6    .617     .56    .467      .6      .6    .625     .65     .65     .65
    .625    .625    .733      .6      .6    .583      .6      .4     .55     .55
    .575     .65     .65    .586     .64    .583      .6      .6    .613      .6
      .6    .633    .467    .575      .6     .65    .625      .7     .65    .675
     .65    .625      .7      .6    .583      .5    .583     .55    .575      .6
     .65      .7     .66     .66      .6      .6    .633    .633    .575    .633
     .62    .467    .575    .625    .675    .675     .65    .675      .7    .675
    .675    .633    .571    .533    .567     .55    .575    .575      .6    .675
    .725      .6     .66     .65     .62    .633    .633      .6    .617     .62
     .62      .5      .6    .625    .675    .675      .7      .7      .7    .557
    .588    .557     .56     .62    .575    .433      .6    .625    .675      .6
    .617     .64     .65     .64     .65    .633    .633    .617    .633      .6
    .625    .467    .625     .65    .675      .7     .66    .586    .617    .614
    .617      .6     .62     .62      .6      .5      .6    .625    .617     .65
     .65    .625     .64     .65     .65     .65    .617    .617     .62    .575
      .6    .533    .625     .65     .65    .675     .68     .66    .614      .6
    .575      .6      .6      .6    .617      .6      .6     .62    .633     .65
     .65     .65      .6    .625     .62    .633    .633      .6     .58      .6
      .5    .575      .6    .625     .65     .65    .633      .6     .55    .588
    .588    .613    .614    .633      .6      .6    .625     .62     .65    .625
     .65     .65    .625      .6     .65     .64      .6      .6    .575     .55
    .575    .575    .625     .65    .675      .7    .567    .583      .6    .617
      .6    .613    .629     .65      .5      .6    .625    .625     .65     .65
     .65    .625    .625    .625      .6    .586    .583     .55     .55    .575
    .575    .575     .65      .7      .6    .583      .6    .617    .633    .633
      .6    .633     .64      .5      .6    .625     .65     .65     .65    .675
     .65     .65    .625     .65      .6    .567      .6    .575      .6    .433
      .6     .65    .675      .6    .633     .65    .633    .633     .65      .6
    .617    .617    .575      .5    .625    .625    .675    .675     .65    .675
    .675    .583    .667      .6     .62    .575    .575      .6      .6    .467
    .625     .64    .633     .65     .65    .667     .65      .7      .6     .65
      .6      .6      .6      .5      .6     .65    .675    .675     .64    .617
    .586     .74    .667    .614     .62    .575      .6    .575    .467    .625
     .64    .633     .65    .667    .667    .667      .6     .55    .567     .56
      .6    .467      .6    .675    .675     .62     .65     .64    .617    .633
    .617    .633    .617      .6    .575    .467      .6     .65    .675     .65
    .675    .675     .66      .6    .614    .614    .625     .56    .575      .6
      .6    .467    .675      .7     .65     .65     .62      .6     .55    .567
     .56      .6    .467      .6    .675    .675     .62     .65     .64    .617
    .633    .617    .633    .617      .6    .575    .467      .6     .65    .675
     .65    .675    .675     .66      .6    .614    .614    .625     .56    .575
      .6      .6    .467    .675      .7     .65     .65     .62     .65    .667
     .65     .68     .65      .6    .575      .6    .467      .6     .65    .675
      .7      .6    .586      .6    .575      .6    .614    .614      .6      .6
    .625      .5     .65     .64      .6     .65     .65     .66     .65     .65
      .7      .6      .6     .62      .6    .625    .433    .625      .6     .65
     .65     .64      .6    .643    .588      .6      .6    .614    .586    .617
      .6      .5    .625    .617     .65     .65     .65     .65    .625      .7
    .633    .617    .617    .575    .575    .433    .575      .6    .625    .625
    .675     .65    .629    .563    .614    .588    .613      .6    .617     .56
    .467      .6      .6    .625     .65     .65     .65    .625    .625    .733
      .6      .6    .583      .6      .4     .55     .55    .575     .65     .65
    .586     .64    .583      .6      .6    .613      .6      .6    .633    .467
    .575      .6     .65    .625      .7     .65    .675     .65    .625      .7
      .6    .583      .5    .583     .55    .575      .6     .65      .7     .66
     .66      .6      .6    .633    .633    .575    .633     .62    .467    .575
    .625    .675    .675     .65    .675      .7    .675    .675    .633    .571
    .533    .567     .55    .575    .575      .6    .675    .725      .6     .66
     .65     .62    .633    .633      .6    .617     .62     .62      .5      .6
    .625    .675    .675      .7      .7      .7    .557    .588    .557     .56
     .62    .575    .433      .6    .625    .675      .6    .617     .64     .65
     .64     .65    .633    .633    .617    .633      .6    .625    .467    .625
     .65    .675      .7     .66    .586    .617    .614    .617      .6     .62
     .62      .6      .5      .6    .625    .617     .65     .65    .625     .64
     .65     .65     .65    .617    .617     .62    .575      .6    .533    .625
     .65     .65    .675     .68     .66    .614      .6    .575      .6      .6
      .6    .617      .6      .6     .62    .633     .65     .65      .6     .55
    .567     .56      .6    .467      .6    .675    .675     .62     .65     .64
    .617    .633    .617    .633    .617      .6    .575    .467      .6     .65
    .675     .65    .675    .675     .66      .6    .614    .614    .625     .56
    .575      .6      .6    .467    .675      .7     .65     .65     .62     .65
    .667     .65     .68     .65      .6    .575      .6    .467      .6     .65
    .675      .7      .6    .586      .6    .575      .6    .614    .614      .6
      .6    .625      .5     .65     .64      .6     .65     .65     .66     .65
     .65      .7      .6      .6     .62      .6    .625    .433    .625      .6
     .65     .65     .64      .6    .643    .588      .6      .6    .614    .586
    .617      .6      .5    .625    .617     .65     .65     .65     .65    .625
      .7    .633    .617    .617    .575    .575    .433    .575      .6    .625
    .625    .675     .65    .629    .563    .614    .588    .613      .6    .617
     .56    .467      .6      .6    .625     .65     .65     .65    .625    .625
    .733      .6      .6    .583      .6      .4     .55     .55    .575     .65
     .65    .586     .64    .583      .6      .6    .613      .6      .6    .633
    .467    .575      .6     .65    .625      .7     .65    .675     .65    .625
      .7      .6    .583      .5    .583     .55    .575      .6     .65      .7
     .66     .66      .6      .6    .633    .633    .575    .633     .62    .467
    .575    .625    .675    .675     .65    .675      .7    .675    .675    .633
    .571    .533    .567     .55    .575    .575      .6    .675    .725      .6
     .66     .65     .62    .633    .633      .6    .617     .62     .62      .5
      .6    .625    .675    .675      .7      .7      .7    .557    .588    .557
     .56     .62    .575    .433      .6    .625    .675      .6    .617     .64
     .65     .64     .65    .633    .633    .617    .633      .6    .625    .467
    .625     .65    .675      .7     .66    .586    .617    .614    .617      .6
     .62     .62      .6      .5      .6    .625    .617     .65     .65    .625
     .64     .65     .65     .65    .617    .617     .62    .575      .6    .533
    .625     .65     .65    .675     .68     .66    .614      .6    .575      .6
      .6      .6    .617      .6      .6     .62    .633     .65     .65      .6
     .55    .567     .56      .6    .467      .6    .675    .675     .62     .65
     .64    .617    .633    .617    .633    .617      .6    .575    .467      .6
     .65    .675     .65    .675    .675     .66      .6    .614    .614    .625
     .56    .575      .6      .6    .467    .675      .7     .65     .65     .62
     .65    .667     .65     .68     .65      .6    .575      .6    .467      .6
     .65    .675      .7      .6    .586      .6    .575      .6    .614    .614
      .6      .6    .625      .5     .65     .64      .6     .65     .65     .66
     .65     .65      .7      .6      .6     .62      .6    .625    .433    .625
      .6     .65     .65     .64      .6    .643    .588      .6      .6    .614
    .586    .617      .6      .5    .625    .617     .65     .65     .65     .65
    .625      .7    .633    .617    .617    .575    .575    .433    .575      .6
    .625    .625    .675     .65.6298889
DSS Path=
Use DSS=False
Use Fixed Start Time=False
Fixed Start Date/Time=,
Is Critical Boundary=False
Critical Boundary Flow=
