Flow Title=CondicoesContorno
Program Version=5.07
Use Restart= 0 
Boundary Location=Itajai          ,Trecho 1        ,78.48   ,        ,                ,                ,                ,                                
Interval=8HOUR
Flow Hydrograph= 100 
     450     450     450     450     450     450     450     450     450     450
     450     450     450     450   490.2   723.8  1007.2  1347.3  1744.6  2189.7
  2642.7  3061.5  3428.5  3736.6  3977.1  4144.7  4259.3  4316.4  4294.5  4220.4
  4108.1  3951.4  3747.7  3497.4  3214.2  2931.9  2670.4  2431.6  2204.6  1989.7
  1792.3  1612.8  1448.4  1296.3    1155  1026.6   913.7     816   730.5   654.2
   585.2     523   467.1     450     450     450     450     450     450     450
     450     450     450     450     450     450     450     450     450     450
     450     450     450     450     450     450     450     450     450     450
     450     450     450     450     450     450     450     450     450     450
     450     450     450     450     450     450     450     450     450     450
DSS Path=
Use DSS=False
Use Fixed Start Time=False
Fixed Start Date/Time=01JAN2000,0000
Is Critical Boundary=False
Critical Boundary Flow=
Boundary Location=Itajai          ,Trecho 1        ,0.86    ,        ,                ,                ,                ,                                
Friction Slope=0.0005,0
